85 Bus/Network_data_85.m


% 85 BUS Sys
            %send recieve R  X (ohm)     line_num
line_data=[ 1	2	0.108	0.075	1
            2	3	0.163	0.112	2
            3	4	0.217	0.149	3
            4	5	0.108	0.074	4
            5	6	0.435	0.298	5
            6	7	0.272	0.186	6
            7	8	1.197	0.820	7
            8	9	0.108	0.074	8
            9	10	0.598	0.41	9
            10	11	0.544	0.373	10
            11	12	0.544	0.373	11
            12	13	0.598	0.410	12
            13	14	0.272	0.186	13
            14	15	0.326	0.223	14
            2	16	0.728	0.302	15
            3	17	0.455	0.189	16
            5	18	0.820	0.340	17
            18	19	0.637	0.264	18
            19	20	0.455	0.189	19
            20	21	0.819	0.340	20
            21	22	1.548	0.642	21
            19	23	0.182	0.075	22
            7	24	0.91	0.378	23
            8	25	0.455	0.189	24
            25	26	0.364	0.151	25
            26	27	0.546	0.226	26
            27	28	0.273	0.113	27
            28	29	0.546	0.226	28
            29	30	0.546	0.226	29
            30	31	0.273	0.113	30
            31	32	0.182	0.075	31
            32	33	0.182	0.075	32
            33	34	0.819	0.340	33
            34	35	0.637	0.264	34
            35	36	0.182	0.075	35
            26	37	0.364	0.151	36
            27	38	1.002	0.416	37
            29	39	0.546	0.226	38
            32	40	0.455	0.189	39
            40	41	1.002	0.416	40
            41	42	0.273	0.113	41
            41	43	0.455	0.189	42
            34	44	1.002	0.416	43
            44	45	0.911	0.378	44
            45	46	0.911	0.378	45
            46	47	0.546	0.226	46
            35	48	0.637	0.264	47
            48	49	0.182	0.075	48
            49	50	0.364	0.151	49
            50	51	0.455	0.189	50
            48	52	1.366	0.567	51
            52	53	0.455	0.189	52
            53	54	0.546	0.226	53
            52	55	0.546	0.226	54
            49	56	0.546	0.226	55
            9	57	0.273	0.113	56
            51	58	0.819	0.34	57
            58	59	0.182	0.015	58
            58	60	0.546	0.226	59
            60	61	0.728	0.302	60
            61	62	1.002	0.415	61
            60	63	0.182	0.075	62
            63	64	0.728	0.302	63
            64	65	0.182	0.075	64
            65	66	0.182	0.075	65
            64	67	0.455	0.189	66
            67	68	0.91	0.378	67
            68	69	1.092	0.453	68
            69	70	0.455	0.189	69
            70	71	0.546	0.226	70
            67	72	0.182	0.075	71
            68	73	1.184	0.491	72
            13	74	0.273	0.113	73
            73	75	1.002	0.416	74
            70	76	0.546	0.226	75
            65	77	0.091	0.037	76
            10	78	0.637	0.264	77
            67	79	0.546	0.226	78
            12	80	0.728	0.302	79
            80	81	0.364	0.151	80
            81	82	0.091	0.037	81
            81	83	1.092	0.453	82
            83	84	1.002	0.416	83
            13	85	0.819	0.34	84];     
          
%              bus_number      P(kw)                     Q(kVAR)
  bus_data=[1	0	0
            2	0	0
            3	0	0
            4	56	39.2
            5	0	0
            6	35.28	24.696
            7	0	0
            8	35.28	24.696
            9	0	0
            10	0	0
            11	56 39.2
            12	0	0
            13	0	0
            14	35.28	24.696
            15	35.28	24.696
            16  35.28	24.696
            17	112	78.4
            18	56	39.2
            19	56	39.2
            20	35.28	24.696
            21	35.28	24.696
            22	35.28	24.696
            23	56	39.2
            24	35.28	24.696
            25	35.28	24.696
            26	56	39.2
            27	0	0
            28  56  39.2
            29	0	0
            30	35.28	24.696
            31	35.28	24.696
            32	0	0
            33	14	9.8
            34	0	0
            35	0	0
            36	35.28	24.696
            37	56	39.2
            38	56	39.2
            39	56	39.2
            40	35.28	24.696
            41	0	0
            42	35.28	24.696
            43	35.28	24.696
            44	35.28	24.696
            45	35.28	24.696
            46	35.28	24.696
            47	14	9.8
            48	0	0
            49	0	0
            50	36.28	25.396
            51	56	39.2
            52	0	0  
            53	35.28	24.696
            54	56	39.2
            55	56	39.2
            56	14	9.8
            57	56	39.2
            58	0	0
            59	56	39.2
            60	0	0
            61	56	39.2
            62	56	39.2
            63	14	9.8
            64	0	0
            65	0	0
            66	56	39.2
            67	0	0
            68	0	0
            69	56	39.2
            70	0	0
            71	35.28	24.696
            72	56	39.2
            73	0	0
            74	56	39.2
            75	35.28	24.696
            76	56	39.2
            77	14	9.8
            78	56	39.2
            79	35.28	24.696
            80	56	39.2
            81	0	0
            82	56	39.2
            83	35.28	24.696
            84	14	9.8
            85	35.28	24.696];                 
             bus_data(:,3)=bus_data(:,2)*1.02;     
              
              
              
              
              
              
              
              
              
              